<?xml version="1.0" encoding="UTF-8"?>
<nodes>
  <node id="nW" x="-200" y="0" type="priority"/>
  <node id="nE" x="200" y="0" type="priority"/>
  <node id="nS" x="0" y="-200" type="priority"/>
  <node id="nN" x="0" y="200" type="priority"/>
  <node id="J0" x="0" y="0" type="traffic_light" tl="TL0"/>
</nodes>
