<?xml version="1.0" encoding="UTF-8"?>
<additional>
  <tlLogic id="TL0" type="static" programID="0" offset="0">
    <!-- links: 0=W->E, 1=E->W, 2=N->S, 3=S->N -->
    <phase duration="30" state="GGrr"/>
    <phase duration="30" state="rrGG"/>
  </tlLogic>
</additional>
